/*--------------------------------*- C++ -*----------------------------------*\
| =========                 |                                                 |
| \\      /  F ield         | OpenFOAM: The Open Source CFD Toolbox           |
|  \\    /   O peration     | Version:  v2312                                 |
|   \\  /    A nd           | Website:  www.openfoam.com                      |
|    \\/     M anipulation  |                                                 |
\*---------------------------------------------------------------------------*/
FoamFile
{
    version     2.0;
    format      ascii;
    class       dictionary;
    object      setFieldsDict;
}
// * * * * * * * * * * * * * * * * * * * * * * * * * * * * * * * * * * * * * //

defaultFieldValues
(
    volVectorFieldValue U (0 0 0)
    volScalarFieldValue T 348.31
    volScalarFieldValue p 100000
);

regions
(
    boxToCell
    {
        box (0 0 0) (1 0.5 0.5);
        fieldValues
        (
            volVectorFieldValue U (0 0 0)
            volScalarFieldValue T 348.31
            volScalarFieldValue p 200000
        );
    }
);


// ************************************************************************* //
